data_Cu_3_3_3
_audit_creation_date              2021-08-16
_audit_creation_method            'Materials Studio'
_symmetry_space_group_name_H-M    'P1'
_symmetry_Int_Tables_number       1
_symmetry_cell_setting            triclinic
loop_
_symmetry_equiv_pos_as_xyz
  x,y,z
_cell_length_a                    10.8441
_cell_length_b                    10.8441
_cell_length_c                    10.8441
_cell_angle_alpha                 90.0000
_cell_angle_beta                  90.0000
_cell_angle_gamma                 90.0000
loop_
_atom_site_label
_atom_site_type_symbol
_atom_site_fract_x
_atom_site_fract_y
_atom_site_fract_z
_atom_site_U_iso_or_equiv
_atom_site_adp_type
_atom_site_occupancy
Cu1    Cu    0.00000   0.00000   0.00000   0.00000  Uiso   1.00
Cu2    Cu    0.00000   0.16667   0.16667   0.00000  Uiso   1.00
Cu3    Cu    0.16667   0.00000   0.16667   0.00000  Uiso   1.00
Cu4    Cu    0.16667   0.16667   0.00000   0.00000  Uiso   1.00
Cu5    Cu    0.33333   0.00000   0.00000   0.00000  Uiso   1.00
Cu6    Cu    0.33333   0.16667   0.16667   0.00000  Uiso   1.00
Cu7    Cu    0.50000   0.00000   0.16667   0.00000  Uiso   1.00
Cu8    Cu    0.50000   0.16667   0.00000   0.00000  Uiso   1.00
Cu9    Cu    0.66667   0.00000   0.00000   0.00000  Uiso   1.00
Cu10   Cu    0.66667   0.16667   0.16667   0.00000  Uiso   1.00
Cu11   Cu    0.83333   0.00000   0.16667   0.00000  Uiso   1.00
Cu12   Cu    0.83333   0.16667   0.00000   0.00000  Uiso   1.00
Cu13   Cu    0.00000   0.33333   0.00000   0.00000  Uiso   1.00
Cu14   Cu    0.00000   0.50000   0.16667   0.00000  Uiso   1.00
Cu15   Cu    0.16667   0.33333   0.16667   0.00000  Uiso   1.00
Cu16   Cu    0.16667   0.50000   0.00000   0.00000  Uiso   1.00
Cu17   Cu    0.33333   0.33333   0.00000   0.00000  Uiso   1.00
Cu18   Cu    0.33333   0.50000   0.16667   0.00000  Uiso   1.00
Cu19   Cu    0.50000   0.33333   0.16667   0.00000  Uiso   1.00
Cu20   Cu    0.50000   0.50000   0.00000   0.00000  Uiso   1.00
Cu21   Cu    0.66667   0.33333   0.00000   0.00000  Uiso   1.00
Cu22   Cu    0.66667   0.50000   0.16667   0.00000  Uiso   1.00
Cu23   Cu    0.83333   0.33333   0.16667   0.00000  Uiso   1.00
Cu24   Cu    0.83333   0.50000   0.00000   0.00000  Uiso   1.00
Cu25   Cu    0.00000   0.66667   0.00000   0.00000  Uiso   1.00
Cu26   Cu    0.00000   0.83333   0.16667   0.00000  Uiso   1.00
Cu27   Cu    0.16667   0.66667   0.16667   0.00000  Uiso   1.00
Cu28   Cu    0.16667   0.83333   0.00000   0.00000  Uiso   1.00
Cu29   Cu    0.33333   0.66667   0.00000   0.00000  Uiso   1.00
Cu30   Cu    0.33333   0.83333   0.16667   0.00000  Uiso   1.00
Cu31   Cu    0.50000   0.66667   0.16667   0.00000  Uiso   1.00
Cu32   Cu    0.50000   0.83333   0.00000   0.00000  Uiso   1.00
Cu33   Cu    0.66667   0.66667   0.00000   0.00000  Uiso   1.00
Cu34   Cu    0.66667   0.83333   0.16667   0.00000  Uiso   1.00
Cu35   Cu    0.83333   0.66667   0.16667   0.00000  Uiso   1.00
Cu36   Cu    0.83333   0.83333   0.00000   0.00000  Uiso   1.00
Cu37   Cu    0.00000   0.00000   0.33333   0.00000  Uiso   1.00
Cu38   Cu    0.00000   0.16667   0.50000   0.00000  Uiso   1.00
Cu39   Cu    0.16667   0.00000   0.50000   0.00000  Uiso   1.00
Cu40   Cu    0.16667   0.16667   0.33333   0.00000  Uiso   1.00
Cu41   Cu    0.33333   0.00000   0.33333   0.00000  Uiso   1.00
Cu42   Cu    0.33333   0.16667   0.50000   0.00000  Uiso   1.00
Cu43   Cu    0.50000   0.00000   0.50000   0.00000  Uiso   1.00
Cu44   Cu    0.50000   0.16667   0.33333   0.00000  Uiso   1.00
Cu45   Cu    0.66667   0.00000   0.33333   0.00000  Uiso   1.00
Cu46   Cu    0.66667   0.16667   0.50000   0.00000  Uiso   1.00
Cu47   Cu    0.83333   0.00000   0.50000   0.00000  Uiso   1.00
Cu48   Cu    0.83333   0.16667   0.33333   0.00000  Uiso   1.00
Cu49   Cu    0.00000   0.33333   0.33333   0.00000  Uiso   1.00
Cu50   Cu    0.00000   0.50000   0.50000   0.00000  Uiso   1.00
Cu51   Cu    0.16667   0.33333   0.50000   0.00000  Uiso   1.00
Cu52   Cu    0.16667   0.50000   0.33333   0.00000  Uiso   1.00
Cu53   Cu    0.33333   0.33333   0.33333   0.00000  Uiso   1.00
Cu54   Cu    0.33333   0.50000   0.50000   0.00000  Uiso   1.00
Cu55   Cu    0.50000   0.33333   0.50000   0.00000  Uiso   1.00
Cu56   Cu    0.50000   0.50000   0.33333   0.00000  Uiso   1.00
Cu57   Cu    0.66667   0.33333   0.33333   0.00000  Uiso   1.00
Cu58   Cu    0.66667   0.50000   0.50000   0.00000  Uiso   1.00
Cu59   Cu    0.83333   0.33333   0.50000   0.00000  Uiso   1.00
Cu60   Cu    0.83333   0.50000   0.33333   0.00000  Uiso   1.00
Cu61   Cu    0.00000   0.66667   0.33333   0.00000  Uiso   1.00
Cu62   Cu    0.00000   0.83333   0.50000   0.00000  Uiso   1.00
Cu63   Cu    0.16667   0.66667   0.50000   0.00000  Uiso   1.00
Cu64   Cu    0.16667   0.83333   0.33333   0.00000  Uiso   1.00
Cu65   Cu    0.33333   0.66667   0.33333   0.00000  Uiso   1.00
Cu66   Cu    0.33333   0.83333   0.50000   0.00000  Uiso   1.00
Cu67   Cu    0.50000   0.66667   0.50000   0.00000  Uiso   1.00
Cu68   Cu    0.50000   0.83333   0.33333   0.00000  Uiso   1.00
Cu69   Cu    0.66667   0.66667   0.33333   0.00000  Uiso   1.00
Cu70   Cu    0.66667   0.83333   0.50000   0.00000  Uiso   1.00
Cu71   Cu    0.83333   0.66667   0.50000   0.00000  Uiso   1.00
Cu72   Cu    0.83333   0.83333   0.33333   0.00000  Uiso   1.00
Cu73   Cu    0.00000   0.00000   0.66667   0.00000  Uiso   1.00
Cu74   Cu    0.00000   0.16667   0.83333   0.00000  Uiso   1.00
Cu75   Cu    0.16667   0.00000   0.83333   0.00000  Uiso   1.00
Cu76   Cu    0.16667   0.16667   0.66667   0.00000  Uiso   1.00
Cu77   Cu    0.33333   0.00000   0.66667   0.00000  Uiso   1.00
Cu78   Cu    0.33333   0.16667   0.83333   0.00000  Uiso   1.00
Cu79   Cu    0.50000   0.00000   0.83333   0.00000  Uiso   1.00
Cu80   Cu    0.50000   0.16667   0.66667   0.00000  Uiso   1.00
Cu81   Cu    0.66667   0.00000   0.66667   0.00000  Uiso   1.00
Cu82   Cu    0.66667   0.16667   0.83333   0.00000  Uiso   1.00
Cu83   Cu    0.83333   0.00000   0.83333   0.00000  Uiso   1.00
Cu84   Cu    0.83333   0.16667   0.66667   0.00000  Uiso   1.00
Cu85   Cu    0.00000   0.33333   0.66667   0.00000  Uiso   1.00
Cu86   Cu    0.00000   0.50000   0.83333   0.00000  Uiso   1.00
Cu87   Cu    0.16667   0.33333   0.83333   0.00000  Uiso   1.00
Cu88   Cu    0.16667   0.50000   0.66667   0.00000  Uiso   1.00
Cu89   Cu    0.33333   0.33333   0.66667   0.00000  Uiso   1.00
Cu90   Cu    0.33333   0.50000   0.83333   0.00000  Uiso   1.00
Cu91   Cu    0.50000   0.33333   0.83333   0.00000  Uiso   1.00
Cu92   Cu    0.50000   0.50000   0.66667   0.00000  Uiso   1.00
Cu93   Cu    0.66667   0.33333   0.66667   0.00000  Uiso   1.00
Cu94   Cu    0.66667   0.50000   0.83333   0.00000  Uiso   1.00
Cu95   Cu    0.83333   0.33333   0.83333   0.00000  Uiso   1.00
Cu96   Cu    0.83333   0.50000   0.66667   0.00000  Uiso   1.00
Cu97   Cu    0.00000   0.66667   0.66667   0.00000  Uiso   1.00
Cu98   Cu    0.00000   0.83333   0.83333   0.00000  Uiso   1.00
Cu99   Cu    0.16667   0.66667   0.83333   0.00000  Uiso   1.00
Cu100  Cu    0.16667   0.83333   0.66667   0.00000  Uiso   1.00
Cu101  Cu    0.33333   0.66667   0.66667   0.00000  Uiso   1.00
Cu102  Cu    0.33333   0.83333   0.83333   0.00000  Uiso   1.00
Cu103  Cu    0.50000   0.66667   0.83333   0.00000  Uiso   1.00
Cu104  Cu    0.50000   0.83333   0.66667   0.00000  Uiso   1.00
Cu105  Cu    0.66667   0.66667   0.66667   0.00000  Uiso   1.00
Cu106  Cu    0.66667   0.83333   0.83333   0.00000  Uiso   1.00
Cu107  Cu    0.83333   0.66667   0.83333   0.00000  Uiso   1.00
Cu108  Cu    0.83333   0.83333   0.66667   0.00000  Uiso   1.00
